 &LMGRID
  startlat_tot= -9.78,
  startlon_tot= -16.32,
  pollat=43.0,
  pollon=-170.0,
  dlon=0.06,
  dlat=0.06,
  ie_tot= 393,
  je_tot= 338,
ke_tot=60,
 /END
 &RUNCTL
  dt= 60.0,
  hstart = {cfg.hstart},
  hstop = {cfg.hstop},   
  ydate_ini = '{cfg.inidate_yyyymmddhh}',
  hincmxt=1.0,
  itype_timing=4,
  lreproduce=.TRUE.,
  luseobs =.TRUE.,
  lphys   =.TRUE.,
  ldiagnos=.FALSE.,
  luse_rttov=.FALSE.,
  ldfi=.FALSE.,
  nprocx = {cfg.cosmo_np_x},
  nprocy = {cfg.cosmo_np_y},
  nprocio=0,
  nboundlines=3,
  ldump_ascii = .FALSE.,
  l_pollen = .FALSE.
 /END
 &TUNING
  tkhmin=0.4,
  tkmmin=0.4,
  rlam_mom=0.0,
  rlam_heat=1.0,
  rat_sea=20.0,
  rat_lam=1.0,
  rat_can=1.0,
  wichfakt=0.0,
  c_lnd=2.0,
  c_sea=1.5,
  c_soil=1.0,
  pat_len=500.0,
  z0m_dia=0.2,
  crsmin=150.0,
  clc_diag=0.5,
  qc0=0.0
  mu_rain=0.0,
  rain_n0_factor=1.0,
  v0snow=25.0,
 /END
