&LMGRID
! European grid with 0.05 resolution
  ie_tot        = 760,
  je_tot        = 610,
  ke_tot        = 60,
  pollon        = -170,  ! origin lon: 10.0
  pollat        =  43,   ! origin lat: 47.0
  dlon          = 0.05,
  dlat          = 0.05,
  startlat_tot  =  -11.,
  startlon_tot  = -17.,
/ 
&RUNCTL
  dt            = 50.0,
  hstart        = {cfg.hstart},
  hstop         = {cfg.hstop},   
  ydate_ini     = '{cfg.inidate_yyyymmddhh}',
  nprocx        = {cfg.cosmo_np_x},
  nprocy        = {cfg.cosmo_np_y},
  nprocio       = 0,
  hincmxt       = 1.0,
  nblock        = 1,  
  lphys         = .TRUE.,
  luse_rttov    = .FALSE.,
  luseobs       = .TRUE., ! turn on/off nudging
  leps          = .FALSE.,
  lreorder      = .FALSE.,
  lreproduce    = .TRUE.,
  itype_timing  = 1,
  ldiagnos      = .TRUE.,
  ldfi          = .FALSE.,
  ldump_ascii   = .FALSE.,
  ldatatypes    = .FALSE.,
  ltime_barrier = .TRUE.,
  num_asynio_comm = {cfg.cosmo_np_io},
  num_iope_percomm = {cfg.num_iope_percomm},
  idbg_level    = 10,
  nboundlines   = 3,
/
&TUNING
  tkhmin=0.4,
  tkmmin=0.4,
  rlam_mom=0.0,
  rlam_heat=1.0,
  rat_sea=20.0,
  rat_lam=1.0,
  rat_can=1.0,
  c_lnd=2.0,
  c_sea=1.5,
  c_soil=1.0,
  pat_len=500.0,
  z0m_dia=0.2,
  crsmin=150.0,
  clc_diag=0.5,
  qc0=0.0,
  mu_rain=0.0,
  rain_n0_factor=1.0,
  v0snow=25.0,
  a_hshr=1.0,
/END
