 &LMGRID
  startlat_tot  = -9.54,
  startlon_tot  = -16.08,
  pollat = 43.0,        pollon = -170.0,
  dlat = 0.12,          dlon = 0.12,
  ie_tot = 192,         je_tot = 164,        ke_tot=60,
 /
 &RUNCTL
  hstart = {cfg.hstart},
  hstop  = {cfg.hstop},
  dt = 60.0,
  ydate_ini='{cfg.inidate_yyyymmddhh}',
  nprocx = {cfg.cosmo_np_x},
  nprocy = {cfg.cosmo_np_y},
  nprocio= 0,
!  num_asynio_comm  = 1, num_iope_percomm = 1,
  lphys = .TRUE.,   
  luse_rttov = .FALSE.,  
  luseobs = .FALSE., 
  leps = .FALSE.,
  lreorder   = .FALSE.,  
  lreproduce    = .TRUE.,   
  itype_timing = 4,
  ldatatypes = .FALSE.,   
  ltime_barrier = .FALSE.,  
  ncomm_type = 3,
  l_pollen = .FALSE., 
  nboundlines = 3,
  l_cosmo_art= .TRUE.,
  idbg_level = 55,
  lprintdeb_all=.TRUE.,
  ldebug_art=.TRUE., 
!  lartif_data=.FALSE,
 /
 &TUNING
  clc_diag  =   0.5,
  pat_len   = 500.0,
  tur_len   = 150.0,
  rlam_heat =   1.0,
  rlam_mom  =   0.0,
  rat_lam   =   1.0,
  rat_can   =   1.0,
  rat_sea   =  20.0,
  c_lnd     =   2.0,
  c_soil    =   1.0,
  c_sea     =   1.5,
  z0m_dia   =   0.2,
  crsmin    = 150.0,
  wichfakt  =   0.0,
  qc0       =   0.0002,
  q_crit    =   1.6,
  mu_rain   =   0.5,
  rain_n0_factor = 0.1,
  v0snow    =    20,
  tkhmin    =   0.4,
  tkmmin    =   0.4,
 /
